Version 4
SHEET 1 2064 680
WIRE 400 -32 -112 -32
WIRE 496 0 64 0
WIRE 64 48 64 0
WIRE 96 48 64 48
WIRE 352 48 320 48
WIRE 384 48 352 48
WIRE 400 48 400 -32
WIRE 400 48 384 48
WIRE 416 48 400 48
WIRE 496 48 496 0
WIRE 512 48 496 48
WIRE 528 48 512 48
WIRE -112 96 -112 -32
WIRE 1024 96 688 96
WIRE 1264 96 1216 96
WIRE 96 112 16 112
WIRE 400 112 320 112
WIRE 512 112 512 48
WIRE 528 112 512 112
WIRE 1280 144 1216 144
WIRE 96 176 -112 176
WIRE 432 176 320 176
WIRE 528 176 432 176
WIRE 1024 192 976 192
WIRE 528 208 528 176
WIRE 96 240 48 240
WIRE 400 304 400 112
WIRE 528 304 528 288
WIRE 528 304 400 304
WIRE 528 320 528 304
WIRE 48 336 48 240
WIRE 352 336 352 48
WIRE 352 336 48 336
WIRE 16 368 16 112
WIRE 432 368 432 176
WIRE 432 368 16 368
WIRE 384 400 384 48
WIRE 528 400 384 400
WIRE -112 448 -112 176
WIRE 688 448 688 96
WIRE 688 448 -112 448
FLAG 528 48 0
FLAG 976 272 0
FLAG 1216 192 0
FLAG 1264 16 0
SYMBOL Misc\\NE555 208 144 R0
SYMATTR InstName U1
SYMBOL voltage 400 48 R270
WINDOW 0 32 56 VTop 2
WINDOW 3 -32 56 VBottom 2
WINDOW 123 0 0 Left 0
WINDOW 39 0 0 Left 0
SYMATTR InstName V1
SYMATTR Value 5
SYMBOL res 512 192 R0
SYMATTR InstName R1
SYMATTR Value 3k
SYMBOL res 512 304 R0
SYMATTR InstName R2
SYMATTR Value 4k
SYMBOL cap 512 112 R0
SYMATTR InstName C1
SYMATTR Value 100n
SYMBOL res -128 80 R0
SYMATTR InstName R3
SYMATTR Value 1k
SYMBOL AutoGenerated\\TLP2761 1120 144 R0
SYMATTR InstName U3
SYMBOL res 960 176 R0
SYMATTR InstName R4
SYMATTR Value 100
SYMBOL voltage 1264 112 R180
WINDOW 0 24 96 Left 2
WINDOW 3 24 16 Left 2
WINDOW 123 0 0 Left 0
WINDOW 39 0 0 Left 0
SYMATTR InstName V2
SYMATTR Value 300
TEXT -130 454 Left 2 !.tran 0 1e-2 0 1e-4 startup uic
