Version 4
SHEET 1 1364 680
WIRE -784 -512 -1296 -512
WIRE -688 -480 -1120 -480
WIRE -1120 -432 -1120 -480
WIRE -1088 -432 -1120 -432
WIRE -832 -432 -864 -432
WIRE -800 -432 -832 -432
WIRE -784 -432 -784 -512
WIRE -784 -432 -800 -432
WIRE -768 -432 -784 -432
WIRE -688 -432 -688 -480
WIRE -672 -432 -688 -432
WIRE -656 -432 -672 -432
WIRE -1296 -384 -1296 -512
WIRE -160 -384 -496 -384
WIRE 80 -384 32 -384
WIRE -1088 -368 -1168 -368
WIRE -784 -368 -864 -368
WIRE -672 -368 -672 -432
WIRE -656 -368 -672 -368
WIRE 224 -336 32 -336
WIRE -1088 -304 -1296 -304
WIRE -752 -304 -864 -304
WIRE -656 -304 -752 -304
WIRE -160 -288 -208 -288
WIRE -656 -272 -656 -304
WIRE -1088 -240 -1136 -240
WIRE -784 -176 -784 -368
WIRE -656 -176 -656 -192
WIRE -656 -176 -784 -176
WIRE -656 -160 -656 -176
WIRE -1136 -144 -1136 -240
WIRE -832 -144 -832 -432
WIRE -832 -144 -1136 -144
WIRE -1168 -112 -1168 -368
WIRE -752 -112 -752 -304
WIRE -752 -112 -1168 -112
WIRE -800 -80 -800 -432
WIRE -656 -80 -800 -80
WIRE -1296 -32 -1296 -304
WIRE -496 -32 -496 -384
WIRE -496 -32 -1296 -32
WIRE -416 0 -496 0
WIRE -336 0 -416 0
WIRE -256 0 -336 0
WIRE -192 0 -256 0
WIRE -128 0 -192 0
WIRE -48 0 -128 0
WIRE -496 32 -496 0
WIRE -416 32 -416 0
WIRE -336 32 -336 0
WIRE 224 64 224 -336
WIRE -48 112 -48 0
WIRE 80 112 80 -384
WIRE 80 112 -48 112
WIRE 144 112 80 112
WIRE 208 112 144 112
WIRE 304 112 288 112
WIRE 368 112 304 112
WIRE 400 112 368 112
WIRE 544 112 480 112
WIRE 656 112 544 112
WIRE 672 112 656 112
WIRE -784 128 -960 128
WIRE -496 128 -496 96
WIRE -496 128 -704 128
WIRE 544 144 544 112
WIRE 672 144 672 112
WIRE -256 176 -256 0
WIRE -192 176 -192 0
WIRE -128 176 -128 0
WIRE 368 176 368 112
WIRE -960 240 -960 128
WIRE -784 240 -960 240
WIRE -416 240 -416 96
WIRE -416 240 -704 240
WIRE -960 352 -960 240
WIRE -784 352 -960 352
WIRE -336 352 -336 96
WIRE -336 352 -704 352
WIRE -496 368 -496 128
WIRE -416 368 -416 240
WIRE -336 368 -336 352
WIRE -496 464 -496 432
WIRE -416 464 -416 432
WIRE -416 464 -496 464
WIRE -336 464 -336 432
WIRE -336 464 -416 464
WIRE -256 464 -256 240
WIRE -256 464 -336 464
WIRE -192 464 -192 240
WIRE -192 464 -256 464
WIRE -128 464 -128 240
WIRE -128 464 -192 464
WIRE 368 464 368 240
WIRE 368 464 -128 464
WIRE 544 464 544 208
WIRE 544 464 368 464
WIRE 672 464 672 384
WIRE 672 464 544 464
FLAG -960 240 0
FLAG 656 112 Vo
FLAG -656 -432 0
FLAG -208 -208 0
FLAG 32 -288 0
FLAG 144 112 Va
SYMBOL ind 496 96 R90
WINDOW 0 5 56 VBottom 2
WINDOW 3 32 56 VTop 2
SYMATTR InstName L1
SYMATTR Value 1m
SYMBOL cap 528 144 R0
SYMATTR InstName C1
SYMATTR Value 10µ
SYMBOL diode 384 240 R180
WINDOW 0 24 64 Left 2
WINDOW 3 24 0 Left 2
SYMATTR InstName D1
SYMATTR Value VS-E5TH1512
SYMBOL res 656 128 R0
SYMATTR InstName R1
SYMATTR Value 0.8
SYMBOL diode -480 96 R180
WINDOW 0 24 64 Left 2
WINDOW 3 24 0 Left 2
SYMATTR InstName D2
SYMBOL diode -400 96 R180
WINDOW 0 24 64 Left 2
WINDOW 3 24 0 Left 2
SYMATTR InstName D3
SYMBOL diode -320 96 R180
WINDOW 0 24 64 Left 2
WINDOW 3 24 0 Left 2
SYMATTR InstName D4
SYMBOL diode -480 432 R180
WINDOW 0 24 64 Left 2
WINDOW 3 24 0 Left 2
SYMATTR InstName D5
SYMBOL diode -400 432 R180
WINDOW 0 24 64 Left 2
WINDOW 3 24 0 Left 2
SYMATTR InstName D6
SYMBOL diode -320 432 R180
WINDOW 0 24 64 Left 2
WINDOW 3 24 0 Left 2
SYMATTR InstName D7
SYMBOL voltage -688 128 R90
WINDOW 0 -32 56 VBottom 2
WINDOW 3 32 56 VTop 2
WINDOW 123 0 0 Left 0
WINDOW 39 0 0 Left 0
SYMATTR InstName V3
SYMATTR Value SINE(0 160 50 0 0 0)
SYMBOL voltage -688 240 R90
WINDOW 0 -32 56 VBottom 2
WINDOW 3 32 56 VTop 2
WINDOW 123 0 0 Left 0
WINDOW 39 0 0 Left 0
SYMATTR InstName V4
SYMATTR Value SINE(0 160 50 0 0 -120)
SYMBOL voltage -688 352 R90
WINDOW 0 -32 56 VBottom 2
WINDOW 3 32 56 VTop 2
WINDOW 123 0 0 Left 0
WINDOW 39 0 0 Left 0
SYMATTR InstName V5
SYMATTR Value SINE(0 160 50 0 0 -240)
SYMBOL cap -208 176 R0
SYMATTR InstName C3
SYMATTR Value 100p
SYMBOL cap -272 176 R0
SYMATTR InstName C2
SYMATTR Value 100µ
SYMBOL cap -144 176 R0
SYMATTR InstName C4
SYMATTR Value 4.7µ
SYMBOL ind 656 208 R0
SYMATTR InstName L2
SYMATTR Value 12.5e-3
SYMBOL Misc\\NE555 -976 -336 R0
SYMATTR InstName U1
SYMBOL voltage -784 -432 R270
WINDOW 0 32 56 VTop 2
WINDOW 3 -32 56 VBottom 2
WINDOW 123 0 0 Left 0
WINDOW 39 0 0 Left 0
SYMATTR InstName V2
SYMATTR Value 5
SYMBOL res -672 -288 R0
SYMATTR InstName R2
SYMATTR Value 3k
SYMBOL res -672 -176 R0
SYMATTR InstName R3
SYMATTR Value 4k
SYMBOL cap -672 -368 R0
SYMATTR InstName C5
SYMATTR Value 10n
SYMBOL res -1312 -400 R0
SYMATTR InstName R4
SYMATTR Value 1k
SYMBOL AutoGenerated\\TLP2761 -64 -336 R0
SYMATTR InstName U2
SYMBOL res -224 -304 R0
SYMATTR InstName R5
SYMATTR Value 100
SYMBOL voltage 672 288 R0
WINDOW 123 0 0 Left 0
WINDOW 39 0 0 Left 0
SYMATTR InstName V1
SYMATTR Value 180
SYMBOL pmos 304 64 R90
SYMATTR InstName M2
SYMATTR Value IRF9640
TEXT 320 16 Left 2 !,ic V(C1)= 0  V(C2)= 0  V(C3)= 0  V(C4)= 0 I(L1)=0 I(L2)=0
TEXT -1314 474 Left 2 !.tran 0 0.120 0 1e-3 startup uic
